*SPEF "IEEE 1481-1998"
*DESIGN "TrafficLight"
*DATE "Wed Jun 24 13:34:17 2026"
*VENDOR "Cadence Design Systems, Inc."
*PROGRAM "Innovus"
*VERSION "21.15-s110_1"
*DESIGN_FLOW "PIN_CAP NONE" "NAME_SCOPE LOCAL"
*DIVIDER /
*DELIMITER :
*BUS_DELIMITER []
*T_UNIT 1 NS
*C_UNIT 1 PF
*R_UNIT 1 OHM
*L_UNIT 1 HENRY

// MMMC spef file for corner 'rc_corner'

*NAME_MAP

*1 FE_OCPN16_n_172
*2 FE_OCPN15_n_419
*3 FE_OCPN14_n_28
*4 FE_OCPN13_FE_DBTN1_state_3
*5 FE_OCPN12_n_15
*6 FE_OCPN11_n_71
*7 FE_OCPN10_n_419
*8 FE_OCPN9_n_194
*9 FE_OCPN7_n_419
*10 FE_OCPN6_n_393
*11 FE_RN_1_0
*12 FE_RN_0_0
*13 FE_RN_1
*14 FE_OCPN5_n_402
*15 FE_OCPN4_n_259
*16 FE_OCPN2_n_422
*17 FE_DBTN2_state_5
*18 FE_DBTN1_state_3
*19 FE_DBTN0_state_1
*20 clk
*21 rst
*22 LED_NS[2]
*23 LED_NS[1]
*24 LED_NS[0]
*25 LED_WE[2]
*26 LED_WE[1]
*27 LED_WE[0]
*28 count[3]
*29 count[2]
*30 count[1]
*31 count[0]
*32 state[5]
*33 state[4]
*34 state[3]
*35 state[2]
*36 state[1]
*37 state[0]
*38 UNCONNECTED
*39 UNCONNECTED0
*40 UNCONNECTED1
*41 UNCONNECTED2
*42 UNCONNECTED3
*43 UNCONNECTED4
*44 n_7
*45 n_14
*46 n_15
*47 n_28
*48 n_37
*49 n_43
*50 n_45
*51 n_56
*52 n_60
*53 n_71
*54 n_72
*55 n_73
*56 n_74
*57 n_79
*58 n_84
*59 n_87
*60 n_88
*61 n_90
*62 n_91
*63 n_92
*64 n_95
*65 n_96
*66 n_101
*67 n_119
*68 n_172
*69 n_180
*70 n_181
*71 n_187
*72 n_192
*73 n_193
*74 n_194
*75 n_197
*76 n_205
*77 n_206
*78 n_207
*79 n_209
*80 n_212
*81 n_215
*82 n_221
*83 n_222
*84 n_223
*85 n_224
*86 n_225
*87 n_229
*88 n_259
*89 n_262
*90 n_267
*91 n_269
*92 n_270
*93 n_289
*94 n_304
*95 n_317
*96 n_318
*97 n_348
*98 n_354
*99 n_355
*100 n_364
*101 n_365
*102 n_366
*103 n_368
*104 n_369
*105 n_373
*106 n_393
*107 n_394
*108 n_396
*109 n_397
*110 n_399
*111 n_400
*112 n_401
*113 n_402
*114 n_404
*115 n_405
*116 n_406
*117 n_408
*118 n_409
*119 n_419
*120 n_420
*121 n_421
*122 n_422
*123 n_423
*124 n_426
*125 n_428
*126 n_429
*127 n_442
*128 FE_OCPC16_n_172
*129 FE_OCPC15_n_419
*130 FE_OCPC14_n_28
*131 FE_RC_22_0
*132 FE_OCPC13_FE_DBTN1_state_3
*133 FE_OCPC12_n_15
*134 FE_OCPC11_n_71
*135 FE_RC_21_0
*136 FE_OCPC10_n_419
*137 FE_RC_20_0
*138 FE_RC_19_0
*139 FE_RC_18_0
*140 FE_OCPC9_n_194
*141 FE_OCPC7_n_419
*142 FE_OCPC6_n_393
*143 FE_RC_8_0
*144 FE_RC_6_0
*145 FE_RC_5_0
*146 FE_RC_4_0
*147 FE_RC_3_0
*148 g10834__10889_dup
*149 FE_RC_2_0
*150 FE_RC_1_0
*151 FE_OCPC5_n_402
*152 FE_RC_0_0
*153 FE_OCPC4_n_259
*154 FE_OCPC4_n_422
*155 FE_OCPC1_n_422
*156 FE_DBTC2_state_5
*157 FE_DBTC1_state_3
*158 count_reg\[2\]
*159 count_reg\[3\]
*160 count_reg\[1\]
*161 count_reg\[0\]
*162 state_reg\[3\]
*163 state_reg\[5\]
*164 state_reg\[4\]
*165 state_reg\[2\]
*166 state_reg\[1\]
*167 LED_NS_reg\[0\]
*168 g10757__4319
*169 g10759__5526
*170 g10756__6783
*171 LED_NS_reg\[1\]
*172 LED_WE_reg\[2\]
*173 LED_NS_reg\[2\]
*174 g10762__3680
*175 LED_WE_reg\[1\]
*176 g10761__2802
*177 LED_WE_reg\[0\]
*178 g10763__1705
*179 g10768
*180 g10788__5477
*181 g10798__6260
*182 g10791
*183 g10810
*184 g10804
*185 g10817
*186 g10823__2802
*187 g10795__7098
*188 g10827__6260
*189 g10830__5526
*190 g10831__1617
*191 g10860
*192 g10847
*193 g10848
*194 state_reg\[0\]
*195 g10834__10889
*196 g181
*197 g45
*198 g46
*199 g60
*200 g91
*201 g95
*202 g97
*203 g94
*204 g10929
*205 g10794__10931
*206 g10840__10932
*207 g10933
*208 g10936
*209 g10937
*210 g63
*211 g66
*212 g65
*213 g41
*214 g268
*215 g265
*216 g2
*217 g10832__10960
*218 g10968
*219 g10838__10998
*220 g11001
*221 g21
*222 g11008
*223 g22
*224 g19
*225 g11009
*226 g11010
*227 g11014
*228 g26
*229 g27
*230 g35
*231 g11017
*232 g11018
*233 g10760__11019
*234 g11021
*235 g10841__11022
*236 g11024
*237 g178
*238 g182
*239 g188
*240 g185
*241 g11029
*242 g183
*243 g180
*244 g179
*245 g11033


*PORTS

*20 I *C 0 21.315
*21 I *C 0 11.165
*22 O *C 35.815 48.43
*23 O *C 48.72 31.465
*24 O *C 48.72 36.685
*25 O *C 27.405 48.43
*26 O *C 30.595 48.43
*27 O *C 25.085 48.43


*D_NET *1 0.00114458

*CONN
*I *177:D I *C 27.115 39.875 *L 0.0016 *D TLATNXL
*I *220:B I *C 29.725 37.265 *L 0.00171 *D NOR2XL
*I *128:Y O *C 24.795 31.755 *L 0 *D CLKBUFX2

*CAP
1 *1:0 0.000122063
2 *1:1 0.000379752
3 *1:3 0.00012359
4 *1:4 0.000257689
5 *1:5 0.00012359
6 *1:6 6.89494e-05
7 *1:8 6.89494e-05

*RES
1 *1:10 *128:Y 1.4
2 *1:8 *1:10 1.4
3 *1:7 *220:B 1.4
4 *1:6 *1:8 0.621436
5 *1:5 *1:7 1.4
6 *1:4 *1:6 1.4
7 *1:3 *1:5 1.1186
8 *1:1 *1:4 2.36139
9 *1:1 *1:3 1.4
10 *1:0 *177:D 1.4
11 *1:0 *1:1 1.11855
*END

*D_NET *2 5.63582e-05

*CONN
*I *129:Y O *C 23.055 31.755 *L 0 *D CLKBUFX2
*I *242:A1 I *C 24.505 35.235 *L 0.0028 *D AOI22X1

*CAP
1 *2:0 1.42548e-05
2 *2:1 1.42548e-05
3 *2:3 1.39244e-05
4 *2:4 1.39244e-05

*RES
1 *2:5 *242:A1 1.4
2 *2:4 *2:5 1.4
3 *2:3 *2:4 0.124283
4 *2:1 *2:3 1.4
5 *2:0 *129:Y 1.4
6 *2:0 *2:1 0.124283
*END

*D_NET *3 0.000139705

*CONN
*I *174:A1 I *C 21.025 24.215 *L 0.00274 *D OAI21X1
*I *130:Y O *C 22.185 24.505 *L 0 *D CLKBUFX2

*CAP
1 *3:2 5.59985e-05
2 *3:3 5.59985e-05
3 *3:4 1.38541e-05
4 *3:5 1.38541e-05

*RES
1 *3:5 *130:Y 1.4
2 *3:4 *3:5 0.124289
3 *3:3 *3:4 1.4
4 *3:2 *3:3 0.497133
5 *3:1 *3:2 1.4
6 *174:A1 *3:1 1.4
*END

*D_NET *4 0.000363699

*CONN
*I *178:A1 I *C 20.155 21.605 *L 0.00274 *D OAI21X1
*I *132:Y O *C 23.635 21.315 *L 0 *D CLKBUFX2

*CAP
1 *4:1 1.38541e-05
2 *4:2 1.38541e-05
3 *4:3 0.000167995
4 *4:4 0.000167995

*RES
1 *4:5 *132:Y 1.4
2 *4:4 *4:5 1.4
3 *4:3 *4:4 1.4914
4 *4:2 *4:3 1.4
5 *4:1 *4:2 0.124289
6 *178:A1 *4:1 1.4
*END

*D_NET *5 0.00117044

*CONN
*I *169:A1 I *C 18.125 21.605 *L 0.00274 *D OAI21X1
*I *133:Y O *C 11.455 16.095 *L 0 *D CLKBUFX2

*CAP
1 *5:1 0.000263227
2 *5:2 0.000263227
3 *5:3 0.000321991
4 *5:4 0.000321991

*RES
1 *5:5 *133:Y 1.4
2 *5:4 *5:5 1.4
3 *5:3 *5:4 2.85852
4 *5:2 *5:3 1.4
5 *5:1 *5:2 2.36149
6 *169:A1 *5:1 1.4
*END

*D_NET *6 0.000980916

*CONN
*I *203:A I *C 38.715 31.755 *L 0.00162 *D NOR2XL
*I *167:D I *C 36.395 37.265 *L 0.0016 *D TLATNXL
*I *134:Y O *C 34.945 31.755 *L 0 *D CLKBUFX2

*CAP
1 *6:1 2.71251e-05
2 *6:2 2.71251e-05
3 *6:3 0.000109858
4 *6:4 0.000109858
5 *6:5 0.000271251
6 *6:6 0.000230564
7 *6:7 4.06877e-05
8 *6:9 6.86612e-05
9 *6:10 6.86612e-05
10 *6:11 1.35626e-05
11 *6:12 1.35626e-05

*RES
1 *6:12 *134:Y 1.4
2 *6:11 *6:12 0.124283
3 *6:10 *6:11 1.4
4 *6:9 *6:10 0.621444
5 *6:7 *6:9 1.4
6 *6:6 *167:D 1.4
7 *6:5 *6:7 0.37285
8 *6:5 *6:6 2.11282
9 *6:4 *6:5 1.4
10 *6:3 *6:4 0.99431
11 *6:2 *6:3 1.4
12 *6:1 *6:2 0.248567
13 *203:A *6:1 1.4
*END

*D_NET *7 0.000434071

*CONN
*I *135:B1 I *C 30.885 26.535 *L 0.00283 *D AOI22X1
*I *136:Y O *C 30.595 29.725 *L 0 *D CLKBUFX2

*CAP
1 *7:1 2.7218e-05
2 *7:2 2.7218e-05
3 *7:3 1.34115e-05
4 *7:4 1.34115e-05
5 *7:5 0.000176406
6 *7:6 0.000176406

*RES
1 *7:6 *136:Y 1.4
2 *7:5 *7:6 1.61569
3 *7:4 *7:5 1.4
4 *7:3 *7:4 0.124284
5 *7:2 *7:3 1.4
6 *7:1 *7:2 0.24857
7 *135:B1 *7:1 1.4
*END

*D_NET *8 0.000980577

*CONN
*I *171:D I *C 36.395 34.655 *L 0.0016 *D TLATNXL
*I *203:B I *C 38.425 32.045 *L 0.00171 *D NOR2XL
*I *140:Y O *C 39.875 29.725 *L 0 *D CLKBUFX2

*CAP
1 *8:2 4.11967e-05
2 *8:3 4.11967e-05
3 *8:4 0.000217001
4 *8:5 0.000217001
5 *8:6 5.49289e-05
6 *8:7 0.00012359
7 *8:8 6.86612e-05
8 *8:9 9.49379e-05
9 *8:10 1.35626e-05
10 *8:11 9.49379e-05
11 *8:12 1.35626e-05

*RES
1 *8:12 *140:Y 1.4
2 *8:11 *203:B 1.4
3 *8:10 *8:12 0.124283
4 *8:9 *8:11 0.869984
5 *8:8 *8:10 1.4
6 *8:7 *8:9 1.4
7 *8:7 *8:8 0.621444
8 *8:6 *8:7 0.497155
9 *8:5 *8:6 1.4
10 *8:4 *8:5 1.98854
11 *8:3 *8:4 1.4
12 *8:2 *8:3 0.372866
13 *8:1 *8:2 1.4
14 *171:D *8:1 1.4
*END

*D_NET *9 0.00114333

*CONN
*I *175:D I *C 32.915 39.875 *L 0.0016 *D TLATNXL
*I *220:A I *C 30.015 36.975 *L 0.00162 *D NOR2XL
*I *141:Y O *C 29.435 31.755 *L 0 *D CLKBUFX2

*CAP
1 *9:1 0.0001085
2 *9:2 0.0001085
3 *9:3 0.000137322
4 *9:4 0.000164787
5 *9:5 2.71251e-05
6 *9:6 2.74645e-05
7 *9:7 2.71251e-05
8 *9:8 0.000271251
9 *9:10 0.000271251

*RES
1 *9:10 *141:Y 1.4
2 *9:8 *9:10 2.48567
3 *9:7 *220:A 1.4
4 *9:6 *9:8 1.4
5 *9:5 *9:7 0.248567
6 *9:4 *9:6 0.248578
7 *9:4 *9:5 1.4
8 *9:3 *9:4 1.24289
9 *9:2 *9:3 1.4
10 *9:1 *9:2 0.994268
11 *175:D *9:1 1.4
*END

*D_NET *10 0.000187762

*CONN
*I *213:A I *C 32.625 24.505 *L 0.0111 *D NAND2X4
*I *142:Y O *C 30.595 24.505 *L 0 *D CLKBUFX2

*CAP
1 *10:2 9.38808e-05
2 *10:3 9.38808e-05

*RES
1 *10:4 *142:Y 1.4
2 *10:3 *10:4 1.4
3 *10:2 *10:3 0.869985
4 *10:1 *10:2 1.4
5 *213:A *10:1 1.4
*END

*D_NET *11 0.000743656

*CONN
*I *145:A0 I *C 16.965 32.045 *L 0.00265 *D OAI22X1
*I *144:Y O *C 20.8175 36.975 *L 0 *D CLKINVX1

*CAP
1 *11:1 1.42548e-05
2 *11:2 1.42548e-05
3 *11:3 0.000125319
4 *11:4 0.000125319
5 *11:5 0.000228076
6 *11:6 0.000232254
7 *11:7 4.17812e-06

*RES
1 *11:7 *144:Y 1.4
2 *11:6 *11:7 0.0364279
3 *11:5 *11:6 1.98853
4 *11:4 *11:5 1.4
5 *11:3 *11:4 1.11855
6 *11:2 *11:3 1.4
7 *11:1 *11:2 0.124283
8 *145:A0 *11:1 1.4
*END

*D_NET *12 0.00020528

*CONN
*I *147:A1 I *C 14.935 32.045 *L 0.00277 *D OAI22X1
*I *146:Y O *C 13.8575 31.755 *L 0 *D CLKINVX1

*CAP
1 *12:1 1.42548e-05
2 *12:2 1.42548e-05
3 *12:3 5.56974e-05
4 *12:4 5.56974e-05
5 *12:5 2.85095e-05
6 *12:6 3.26876e-05
7 *12:7 4.17812e-06

*RES
1 *12:7 *146:Y 1.4
2 *12:6 *12:7 0.0364279
3 *12:5 *12:6 0.248567
4 *12:4 *12:5 1.4
5 *12:3 *12:4 0.497134
6 *12:2 *12:3 1.4
7 *12:1 *12:2 0.124283
8 *147:A1 *12:1 1.4
*END

*D_NET *13 0.000323224

*CONN
*I *137:A I *C 36.105 21.315 *L 0.00579 *D NAND3X2
*I *148:Y O *C 33.205 21.895 *L 0 *D NOR2X4

*CAP
1 *13:1 1.37483e-05
2 *13:2 1.37483e-05
3 *13:3 0.000134115
4 *13:4 0.000134115
5 *13:5 1.37483e-05
6 *13:6 1.37483e-05

*RES
1 *13:6 *148:Y 1.4
2 *13:5 *13:6 0.124289
3 *13:4 *13:5 1.4
4 *13:3 *13:4 1.24284
5 *13:2 *13:3 1.4
6 *13:1 *13:2 0.124289
7 *137:A *13:1 1.4
*END

*D_NET *14 0.000416786

*CONN
*I *233:A0 I *C 24.795 24.505 *L 0.00271 *D OAI21X1
*I *151:Y O *C 25.955 21.315 *L 0 *D CLKBUFX2

*CAP
1 *14:1 1.38541e-05
2 *14:2 1.38541e-05
3 *14:3 5.59985e-05
4 *14:4 5.59985e-05
5 *14:5 0.000138541
6 *14:6 0.000138541

*RES
1 *14:6 *151:Y 1.4
2 *14:5 *14:6 1.24289
3 *14:4 *14:5 1.4
4 *14:3 *14:4 0.497133
5 *14:2 *14:3 1.4
6 *14:1 *14:2 0.124289
7 *233:A0 *14:1 1.4
*END

*D_NET *15 0.00100906

*CONN
*I *150:A1 I *C 34.365 37.265 *L 0.0107 *D AOI21X4
*I *183:A I *C 36.395 31.755 *L 0.00521 *D CLKINVX2
*I *153:Y O *C 39.005 31.465 *L 0 *D BUFX3

*CAP
1 *15:1 0.000244126
2 *15:2 0.000244126
3 *15:3 9.61257e-05
4 *15:4 0.000219716
5 *15:5 0.00012359
6 *15:6 1.35626e-05
7 *15:7 2.71251e-05
8 *15:8 1.35626e-05
9 *15:9 2.71251e-05

*RES
1 *15:9 *153:Y 1.4
2 *15:8 *183:A 1.4
3 *15:7 *15:9 0.248567
4 *15:6 *15:8 0.124283
5 *15:5 *15:7 1.4
6 *15:4 *15:6 1.4
7 *15:4 *15:5 1.1186
8 *15:3 *15:4 0.870021
9 *15:2 *15:3 1.4
10 *15:1 *15:2 2.2371
11 *150:A1 *15:1 1.4
*END

*D_NET *16 0.000576733

*CONN
*I *161:D I *C 10.005 34.945 *L 0.0028 *D SDFFRHQX2
*I *154:Y O *C 10.5025 29.725 *L 0 *D CLKINVX1

*CAP
1 *16:2 1.39244e-05
2 *16:3 1.39244e-05
3 *16:4 0.000256586
4 *16:5 0.000256586
5 *16:6 1.39244e-05
6 *16:7 1.39244e-05
7 *16:8 3.93235e-06
8 *16:9 3.93235e-06

*RES
1 *16:9 *154:Y 1.4
2 *16:8 *16:9 0.034285
3 *16:7 *16:8 1.4
4 *16:6 *16:7 0.124283
5 *16:5 *16:6 1.4
6 *16:4 *16:5 2.2371
7 *16:3 *16:4 1.4
8 *16:2 *16:3 0.124283
9 *16:1 *16:2 1.4
10 *161:D *16:1 1.4
*END

*D_NET *17 0.00133049

*CONN
*I *215:B I *C 26.245 16.385 *L 0.011 *D NAND2X4
*I *176:A1 I *C 27.985 13.775 *L 0.00274 *D OAI21X1
*I *156:Y O *C 29.145 11.455 *L 0 *D CLKINVX6
*I *236:B I *C 33.495 11.165 *L 0.0109 *D NOR2X4

*CAP
1 *17:1 0.000151231
2 *17:2 0.000151231
3 *17:3 8.04692e-05
4 *17:4 0.000120704
5 *17:5 4.02346e-05
6 *17:6 2.74966e-05
7 *17:7 0.000109986
8 *17:8 2.74966e-05
9 *17:9 0.000109986
10 *17:11 1.34115e-05
11 *17:12 0.000214585
12 *17:13 2.74966e-05
13 *17:14 0.000201173
14 *17:15 2.74966e-05
15 *17:16 1.37483e-05
16 *17:18 1.37483e-05

*RES
1 *17:18 *236:B 1.4
2 *17:16 *17:18 0.124289
3 *17:15 *156:Y 1.4
4 *17:14 *17:16 1.4
5 *17:13 *17:15 0.248578
6 *17:12 *17:14 1.86425
7 *17:12 *17:13 1.4
8 *17:11 *17:12 0.124284
9 *17:9 *17:11 1.4
10 *17:8 *176:A1 1.4
11 *17:7 *17:9 0.99431
12 *17:6 *17:8 0.248578
13 *17:5 *17:7 1.4
14 *17:4 *17:6 1.4
15 *17:4 *17:5 0.372851
16 *17:3 *17:4 0.745702
17 *17:2 *17:3 1.4
18 *17:1 *17:2 1.36718
19 *215:B *17:1 1.4
*END

*D_NET *18 0.00121166

*CONN
*I *229:B I *C 28.565 23.925 *L 0.00542 *D NOR2X2
*I *132:A I *C 24.215 21.605 *L 0.00172 *D CLKBUFX2
*I *157:Y O *C 25.665 18.705 *L 0 *D CLKINVX6
*I *215:A I *C 25.665 16.095 *L 0.0111 *D NAND2X4

*CAP
1 *18:1 1.37483e-05
2 *18:2 1.37483e-05
3 *18:3 1.34115e-05
4 *18:4 1.34115e-05
5 *18:5 8.24898e-05
6 *18:6 8.24898e-05
7 *18:7 8.04692e-05
8 *18:8 0.000178173
9 *18:9 8.24898e-05
10 *18:10 9.77033e-05
11 *18:11 8.24898e-05
12 *18:12 1.38541e-05
13 *18:13 2.77052e-05
14 *18:14 1.38541e-05
15 *18:15 2.77052e-05
16 *18:17 6.92703e-05
17 *18:18 0.000193957
18 *18:20 0.000124687

*RES
1 *18:20 *215:A 1.4
2 *18:18 *18:20 1.1186
3 *18:18 *157:Y 1.4
4 *18:17 *18:18 0.621444
5 *18:15 *18:17 1.4
6 *18:14 *132:A 1.4
7 *18:13 *18:15 0.248567
8 *18:12 *18:14 0.124289
9 *18:11 *18:13 1.4
10 *18:10 *18:12 1.4
11 *18:9 *18:11 0.745732
12 *18:8 *18:10 0.869984
13 *18:8 *18:9 1.4
14 *18:7 *18:8 0.745702
15 *18:6 *18:7 1.4
16 *18:5 *18:6 0.745732
17 *18:4 *18:5 1.4
18 *18:3 *18:4 0.124284
19 *18:2 *18:3 1.4
20 *18:1 *18:2 0.124289
21 *229:B *18:1 1.4
*END

*D_NET *19 0.00216583

*CONN
*I *227:A0N I *C 38.425 16.095 *L 0.00173 *D OAI2BB1X1
*I *225:B I *C 36.105 16.095 *L 0.00165 *D OR2X1
*I *230:B I *C 39.585 13.485 *L 0.00542 *D NOR2X2
*I *143:Y O *C 35.525 11.455 *L 0 *D INVX6
*I *170:A1 I *C 27.695 11.165 *L 0.00274 *D OAI21X1
*I *214:B I *C 24.215 11.165 *L 0.011 *D NAND2X4

*CAP
1 *19:2 4.02346e-05
2 *19:3 0.000107292
3 *19:4 0.000123735
4 *19:5 6.70577e-05
5 *19:6 0.000123735
6 *19:8 1.34115e-05
7 *19:10 9.38808e-05
8 *19:11 8.04692e-05
9 *19:12 8.24898e-05
10 *19:14 8.24898e-05
11 *19:16 0.000107292
12 *19:17 0.000107292
13 *19:18 1.37483e-05
14 *19:19 1.37483e-05
15 *19:20 0.000362112
16 *19:22 0.000526873
17 *19:23 1.37483e-05
18 *19:24 0.000164761
19 *19:25 1.37483e-05
20 *19:26 1.38541e-05
21 *19:28 1.38541e-05

*RES
1 *19:28 *214:B 1.4
2 *19:26 *19:28 0.124289
3 *19:25 *170:A1 1.4
4 *19:24 *19:26 1.4
5 *19:23 *19:25 0.124289
6 *19:22 *19:24 1.4914
7 *19:22 *19:23 1.4
8 *19:20 *19:22 3.35566
9 *19:19 *143:Y 1.4
10 *19:19 *19:20 1.4
11 *19:18 *19:19 0.124289
12 *19:17 *19:18 1.4
13 *19:16 *19:17 0.994269
14 *19:14 *19:16 1.4
15 *19:13 *230:B 1.4
16 *19:12 *19:14 0.745732
17 *19:11 *19:13 1.4
18 *19:10 *19:12 1.4
19 *19:10 *19:11 0.745702
20 *19:8 *19:10 0.124284
21 *19:7 *225:B 1.4
22 *19:6 *19:8 1.4
23 *19:5 *19:7 1.4
24 *19:4 *19:6 1.1186
25 *19:3 *19:5 0.621418
26 *19:3 *19:4 1.4
27 *19:2 *19:3 0.372851
28 *19:1 *19:2 1.4
29 *227:A0N *19:1 1.4
*END

*D_NET *20 0.00586216

*CONN
*I *161:CK I *C 16.095 34.655 *L 0.00175 *D SDFFRHQX2
*I *160:CK I *C 13.485 27.115 *L 0.0018 *D DFFRX2
*I *159:CK I *C 17.545 26.825 *L 0.00175 *D DFFRHQX2
*I *158:CK I *C 11.745 29.435 *L 0.00171 *D DFFRHQX4
*I *194:CK I *C 10.875 24.215 *L 0.00156 *D DFFSHQX4
*P *20 I *C 0 21.315 *L 0
*I *164:CK I *C 8.845 18.995 *L 0.00171 *D DFFRHQX4
*I *162:CK I *C 8.265 21.605 *L 0.00171 *D DFFRHQX4
*I *163:CK I *C 18.125 13.775 *L 0.00171 *D DFFRHQX4
*I *165:CK I *C 8.265 11.165 *L 0.00171 *D DFFRHQX4
*I *166:CK I *C 18.125 8.555 *L 0.00171 *D DFFRHQX4

*CAP
1 *20:2 2.78487e-05
2 *20:3 2.78487e-05
3 *20:4 0.000356369
4 *20:5 0.000384879
5 *20:6 0.000153168
6 *20:7 2.85095e-05
7 *20:8 0.00022279
8 *20:9 4.17731e-05
9 *20:10 1.42548e-05
10 *20:11 8.35461e-05
11 *20:12 4.17731e-05
12 *20:13 1.42548e-05
13 *20:14 0.000154198
14 *20:15 1.39244e-05
15 *20:18 0.000154198
16 *20:19 9.97833e-05
17 *20:21 5.59985e-05
18 *20:22 9.97833e-05
19 *20:23 0.000111997
20 *20:26 5.59985e-05
21 *20:28 0.000138541
22 *20:29 0.000138541
23 *20:30 4.19988e-05
24 *20:31 6.99981e-05
25 *20:32 0.000110833
26 *20:33 0.000426988
27 *20:34 0.000471038
28 *20:35 1.38541e-05
29 *20 0.000398989
30 *20:38 0.00037406
31 *20:39 1.38541e-05
32 *20:40 0.000447988
33 *20:41 1.38541e-05
34 *20:43 0.000461987
35 *20:44 2.79992e-05
36 *20:45 1.39996e-05
37 *20:46 0.000110833
38 *20:47 2.79992e-05
39 *20:48 0.000138541
40 *20:49 0.000110833
41 *20:51 0.000138541
42 *20:54 1.39996e-05
43 *20:55 1.39996e-05

*RES
1 *20:56 *166:CK 1.4
2 *20:55 *20:56 1.4
3 *20:54 *20:55 0.124283
4 *20:51 *20:54 1.4
5 *20:50 *165:CK 1.4
6 *20:49 *163:CK 1.4
7 *20:48 *20:51 1.24289
8 *20:47 *20:50 1.4
9 *20:46 *20:49 0.99431
10 *20:45 *20:48 1.4
11 *20:44 *20:47 0.248567
12 *20:43 *20:46 1.4
13 *20:43 *20:45 0.124283
14 *20:41 *20:44 1.4
15 *20:40 *20:43 3.97707
16 *20:39 *162:CK 1.4
17 *20:38 *20:41 0.124289
18 *20:38 *20:40 1.4
19 *20:35 *20:39 0.124289
20 *20:34 *20:38 3.23151
21 *20:34 *164:CK 1.4
22 *20:33 *20 3.54208
23 *20:33 *20:35 1.4
24 *20:32 *20:34 0.99431
25 *20:31 *20:33 0.248567
26 *20:31 *20:32 1.4
27 *20:30 *20:31 0.37285
28 *20:29 *20:30 1.4
29 *20:28 *20:29 1.24289
30 *20:26 *20:28 1.4
31 *20:25 *194:CK 1.4
32 *20:23 *20:26 0.497133
33 *20:23 *20:25 1.4
34 *20:22 *158:CK 1.4
35 *20:21 *20:23 0.497133
36 *20:19 *20:22 0.869983
37 *20:18 *20:21 1.4
38 *20:16 *159:CK 1.4
39 *20:15 *20:19 1.4
40 *20:14 *20:18 1.36715
41 *20:13 *160:CK 1.4
42 *20:12 *20:16 1.4
43 *20:11 *20:15 0.124283
44 *20:11 *20:14 1.4
45 *20:10 *20:13 0.124283
46 *20:9 *20:12 0.37285
47 *20:8 *20:11 0.621417
48 *20:8 *20:10 1.4
49 *20:7 *20:9 1.4
50 *20:6 *20:8 1.36712
51 *20:5 *20:7 0.248567
52 *20:5 *20:6 1.4
53 *20:4 *20:5 3.10708
54 *20:3 *20:4 1.4
55 *20:2 *20:3 0.248567
56 *20:1 *20:2 1.4
57 *161:CK *20:1 1.4
*END

*D_NET *21 0.00133451

*CONN
*I *191:A I *C 11.175 8.6175 *L 0.00163 *D INVXL
*P *21 I *C 0 11.165 *L 0

*CAP
1 *21:1 4.77726e-07
2 *21:2 3.58295e-06
3 *21:3 3.10522e-06
4 *21:4 0.00034999
5 *21:5 0.00034999
6 *21:6 0.000124687
7 *21:7 0.000124687
8 *21:8 0.000188995
9 *21 0.000188995

*RES
1 *21:8 *21 1.67783
2 *21:7 *21:8 1.4
3 *21:6 *21:7 1.1186
4 *21:5 *21:6 1.4
5 *21:4 *21:5 3.10708
6 *21:3 *21:4 1.4
7 *21:2 *21:3 0.0278578
8 *21:1 *21:2 0.00428582
9 *191:A *21:1 1.4
*END

*D_NET *22 0.00110298

*CONN
*P *22 O *C 35.815 48.43 *L 0
*I *173:Q O *C 39.585 40.455 *L 0 *D TLATNXL

*CAP
1 *22 6.78128e-06
2 *22:1 6.78128e-06
3 *22:2 0.000178519
4 *22:3 0.000178519
5 *22:4 0.000366189
6 *22:5 0.000366189

*RES
1 *22:5 *173:Q 1.4
2 *22:4 *22:5 3.35565
3 *22:3 *22:4 1.4
4 *22:2 *22:3 1.61575
5 *22:1 *22:2 1.4
6 *22 *22:1 0.0621417
*END

*D_NET *23 0.0011079

*CONN
*P *23 O *C 48.72 31.465 *L 0
*I *171:Q O *C 40.745 35.235 *L 0 *D TLATNXL

*CAP
1 *23 0.000377636
2 *23:1 0.000377636
3 *23:2 0.000176313
4 *23:3 0.000176313

*RES
1 *23:3 *171:Q 1.4
2 *23:2 *23:3 1.61569
3 *23:1 *23:2 1.4
4 *23 *23:1 3.41794
*END

*D_NET *24 0.000755273

*CONN
*P *24 O *C 48.72 36.685 *L 0
*I *167:Q O *C 40.745 36.685 *L 0 *D TLATNXL

*CAP
1 *24 0.000377636
2 *24:1 0.000377636

*RES
1 *24:2 *167:Q 1.4
2 *24:1 *24:2 1.4
3 *24 *24:1 3.41794
*END

*D_NET *25 0.00143102

*CONN
*P *25 O *C 27.405 48.43 *L 0
*I *172:Q O *C 23.925 36.685 *L 0 *D TLATNXL

*CAP
1 *25 0.000549284
2 *25:1 0.000549284
3 *25:2 0.000166228
4 *25:3 0.000166228

*RES
1 *25:4 *172:Q 1.4
2 *25:3 *25:4 1.4
3 *25:2 *25:3 1.49142
4 *25:1 *25:2 1.4
5 *25 *25:1 5.03348
*END

*D_NET *26 0.000938192

*CONN
*P *26 O *C 30.595 48.43 *L 0
*I *175:Q O *C 28.565 40.455 *L 0 *D TLATNXL

*CAP
1 *26 6.78128e-06
2 *26:1 6.78128e-06
3 *26:2 5.49289e-05
4 *26:3 5.49289e-05
5 *26:4 0.000366189
6 *26:5 0.000366189
7 *26:6 4.11967e-05
8 *26:7 4.11967e-05

*RES
1 *26:8 *175:Q 1.4
2 *26:7 *26:8 1.4
3 *26:6 *26:7 0.372866
4 *26:5 *26:6 1.4
5 *26:4 *26:5 3.35565
6 *26:3 *26:4 1.4
7 *26:2 *26:3 0.497155
8 *26:1 *26:2 1.4
9 *26 *26:1 0.0621417
*END

*D_NET *27 0.0010068

*CONN
*P *27 O *C 25.085 48.43 *L 0
*I *177:Q O *C 22.765 40.455 *L 0 *D TLATNXL

*CAP
1 *27 0.000392006
2 *27:1 0.000392006
3 *27:2 0.000111395
4 *27:3 0.000111395

*RES
1 *27:4 *177:Q 1.4
2 *27:3 *27:4 1.4
3 *27:2 *27:3 0.994267
4 *27:1 *27:2 1.4
5 *27 *27:1 3.41779
*END

*D_NET *28 0.00242605

*CONN
*I *181:A I *C 18.125 36.975 *L 0.00263 *D NOR2X1
*I *226:AN I *C 19.575 37.265 *L 0.00174 *D NOR2BXL
*I *189:B I *C 21.605 29.145 *L 0.00542 *D NOR2X2
*I *206:B I *C 22.475 37.265 *L 0.00534 *D NAND2X2
*I *159:Q O *C 16.965 27.115 *L 0 *D DFFRHQX2
*I *146:A I *C 13.485 31.755 *L 0.00273 *D CLKINVX1

*CAP
1 *28:1 1.42548e-05
2 *28:2 1.42548e-05
3 *28:3 6.96218e-05
4 *28:4 0.000167092
5 *28:5 9.74705e-05
6 *28:6 2.85095e-05
7 *28:7 0.000399133
8 *28:8 2.85095e-05
9 *28:9 2.85095e-05
10 *28:10 0.000370624
11 *28:12 4.17731e-05
12 *28:14 0.00022279
13 *28:15 4.17731e-05
14 *28:16 0.000306336
15 *28:18 9.97833e-05
16 *28:19 8.35461e-05
17 *28:21 9.97833e-05
18 *28:22 9.97833e-05
19 *28:24 9.97833e-05
20 *28:25 2.78487e-05
21 *28:26 2.78487e-05
22 *28:27 2.85095e-05
23 *28:28 2.85095e-05

*RES
1 *28:28 *146:A 1.4
2 *28:27 *28:28 0.248567
3 *28:26 *28:27 1.4
4 *28:25 *28:26 0.248567
5 *28:24 *28:25 1.4
6 *28:22 *28:24 0.869983
7 *28:21 *159:Q 1.4
8 *28:19 *28:22 1.4
9 *28:18 *28:21 0.869983
10 *28:17 *206:B 1.4
11 *28:16 *28:19 0.7457
12 *28:16 *28:18 1.4
13 *28:15 *28:17 1.4
14 *28:14 *28:16 1.98853
15 *28:12 *28:15 0.37285
16 *28:10 *28:14 1.4
17 *28:10 *189:B 1.4
18 *28:9 *28:12 1.4
19 *28:8 *226:AN 1.4
20 *28:7 *28:10 3.23137
21 *28:7 *28:9 0.248567
22 *28:6 *28:8 0.248567
23 *28:5 *28:7 1.4
24 *28:4 *28:6 1.4
25 *28:4 *28:5 0.869984
26 *28:3 *28:4 0.621417
27 *28:2 *28:3 1.4
28 *28:1 *28:2 0.124283
29 *181:A *28:1 1.4
*END

*D_NET *29 0.00251422

*CONN
*I *189:A I *C 21.315 29.435 *L 0.00564 *D NOR2X2
*I *206:A I *C 21.895 36.975 *L 0.00547 *D NAND2X2
*I *144:A I *C 20.445 36.975 *L 0.00273 *D CLKINVX1
*I *211:A I *C 16.095 36.975 *L 0.00162 *D NOR2XL
*I *212:A I *C 14.935 37.265 *L 0.00178 *D AND2X1
*I *245:AN I *C 13.195 37.265 *L 0.00174 *D NOR2BX1
*I *158:Q O *C 12.325 29.435 *L 0 *D DFFRHQX4

*CAP
1 *29:2 2.78487e-05
2 *29:3 2.78487e-05
3 *29:4 0.000370624
4 *29:5 0.000370624
5 *29:7 6.96218e-05
6 *29:8 0.000278487
7 *29:10 0.000264563
8 *29:13 0.000139244
9 *29:15 1.42548e-05
10 *29:16 0.000125319
11 *29:17 1.42548e-05
12 *29:18 1.42548e-05
13 *29:19 4.17731e-05
14 *29:21 1.42548e-05
15 *29:22 0.000370624
16 *29:24 0.000370624

*RES
1 *29:24 *158:Q 1.4
2 *29:22 *29:24 3.23137
3 *29:21 *245:AN 1.4
4 *29:19 *29:22 1.4
5 *29:18 *29:21 0.124283
6 *29:17 *212:A 1.4
7 *29:16 *29:19 0.37285
8 *29:16 *29:18 1.4
9 *29:15 *29:17 0.124283
10 *29:13 *29:16 0.7457
11 *29:13 *29:15 1.4
12 *29:12 *211:A 1.4
13 *29:10 *29:13 0.497134
14 *29:10 *29:12 1.4
15 *29:9 *144:A 1.4
16 *29:8 *29:10 1.86425
17 *29:8 *29:9 1.4
18 *29:7 *29:8 0.621417
19 *29:5 *29:7 1.4
20 *29:5 *206:A 1.4
21 *29:4 *29:5 3.23137
22 *29:3 *29:4 1.4
23 *29:2 *29:3 0.248567
24 *29:1 *29:2 1.4
25 *189:A *29:1 1.4
*END

*D_NET *30 0.0011498

*CONN
*I *231:B1 I *C 9.135 24.215 *L 0.00282 *D OAI22X1
*I *160:QN O *C 15.225 27.115 *L 0 *D DFFRX2
*I *186:A1 I *C 9.425 30.015 *L 0.00163 *D AOI21XL

*CAP
1 *30:1 0.000139943
2 *30:2 0.000139943
3 *30:3 1.39244e-05
4 *30:4 0.000292411
5 *30:5 0.000278487
6 *30:6 0.000142548
7 *30:8 0.000142548

*RES
1 *30:8 *186:A1 1.4
2 *30:7 *160:QN 1.4
3 *30:6 *30:8 1.24283
4 *30:5 *30:7 1.4
5 *30:4 *30:6 1.4
6 *30:4 *30:5 2.48567
7 *30:3 *30:4 0.124283
8 *30:2 *30:3 1.4
9 *30:1 *30:2 1.24287
10 *231:B1 *30:1 1.4
*END

*D_NET *31 0.00109667

*CONN
*I *186:A0 I *C 10.005 29.725 *L 0.00158 *D AOI21XL
*I *224:A I *C 10.585 31.755 *L 0.00521 *D CLKINVX2
*I *217:A I *C 12.325 31.755 *L 0.00267 *D NAND2X1
*I *161:Q O *C 16.675 34.365 *L 0 *D SDFFRHQX2

*CAP
1 *31:2 2.78487e-05
2 *31:3 2.78487e-05
3 *31:4 9.97833e-05
4 *31:5 9.97833e-05
5 *31:6 4.17731e-05
6 *31:7 0.000125319
7 *31:8 8.35461e-05
8 *31:10 0.000128293
9 *31:12 0.000128293
10 *31:14 0.000167092
11 *31:15 0.000167092

*RES
1 *31:16 *161:Q 1.4
2 *31:15 *31:16 1.4
3 *31:14 *31:15 1.4914
4 *31:12 *31:14 1.4
5 *31:10 *217:A 1.4
6 *31:10 *31:12 1.11855
7 *31:9 *224:A 1.4
8 *31:8 *31:10 1.4
9 *31:7 *31:9 1.4
10 *31:7 *31:8 0.7457
11 *31:6 *31:7 0.37285
12 *31:5 *31:6 1.4
13 *31:4 *31:5 0.869983
14 *31:3 *31:4 1.4
15 *31:2 *31:3 0.248567
16 *31:1 *31:2 1.4
17 *186:A0 *31:1 1.4
*END

*D_NET *32 0.00311832

*CONN
*I *230:A I *C 39.295 13.775 *L 0.00564 *D NOR2X2
*I *198:B I *C 37.555 13.775 *L 0.0109 *D NOR2X4
*I *227:A1N I *C 37.845 16.385 *L 0.0017 *D OAI2BB1X1
*I *225:A I *C 36.975 16.385 *L 0.00173 *D OR2X1
*I *222:A I *C 20.735 18.995 *L 0.00564 *D NOR2X2
*I *156:A I *C 29.435 11.165 *L 0.0156 *D CLKINVX6
*I *163:Q O *C 18.705 13.775 *L 0 *D DFFRHQX4

*CAP
1 *32:2 8.04692e-05
2 *32:3 8.04692e-05
3 *32:4 1.37483e-05
4 *32:5 1.37483e-05
5 *32:7 1.34115e-05
6 *32:8 0.000388935
7 *32:9 0.000109986
8 *32:10 0.000375523
9 *32:11 0.000109986
10 *32:12 1.37483e-05
11 *32:13 4.02346e-05
12 *32:14 0.000137483
13 *32:15 2.68231e-05
14 *32:16 1.34115e-05
15 *32:17 0.000399814
16 *32:18 0.000123735
17 *32:21 0.000399814
18 *32:22 1.34115e-05
19 *32:25 0.000263227
20 *32:26 1.34115e-05
21 *32:27 0.000249373
22 *32:28 1.38541e-05
23 *32:31 9.79973e-05
24 *32:33 9.79973e-05
25 *32:34 1.38541e-05
26 *32:35 1.38541e-05

*RES
1 *32:35 *163:Q 1.4
2 *32:34 *32:35 0.124289
3 *32:33 *32:34 1.4
4 *32:31 *32:33 0.869983
5 *32:29 *156:A 1.4
6 *32:28 *32:31 1.4
7 *32:27 *222:A 1.4
8 *32:26 *32:29 1.4
9 *32:25 *32:28 0.124289
10 *32:25 *32:27 2.2372
11 *32:22 *32:26 0.124284
12 *32:21 *32:25 1.4
13 *32:20 *225:A 1.4
14 *32:19 *227:A1N 1.4
15 *32:18 *32:22 1.4
16 *32:17 *32:21 3.60422
17 *32:16 *32:20 1.4
18 *32:15 *32:19 1.4
19 *32:14 *32:18 1.1186
20 *32:14 *32:17 1.4
21 *32:13 *32:16 0.124284
22 *32:13 *32:15 0.248567
23 *32:12 *32:14 0.124289
24 *32:11 *32:13 1.4
25 *32:10 *32:12 1.4
26 *32:9 *32:11 0.99431
27 *32:8 *32:10 3.47994
28 *32:8 *32:9 1.4
29 *32:7 *32:8 0.124284
30 *32:5 *32:7 1.4
31 *32:4 *198:B 1.4
32 *32:4 *32:5 0.124289
33 *32:3 *32:4 1.4
34 *32:2 *32:3 0.745702
35 *32:1 *32:2 1.4
36 *230:A *32:1 1.4
*END

*D_NET *33 0.00326258

*CONN
*I *148:A I *C 32.625 21.605 *L 0.0111 *D NOR2X4
*I *195:A I *C 31.755 16.385 *L 0.0166 *D NOR2X6
*I *188:B I *C 29.435 16.675 *L 0.00542 *D NOR2X2
*I *193:A I *C 23.635 18.995 *L 0.0105 *D CLKINVX4
*I *219:A I *C 10.295 16.095 *L 0.00547 *D NAND2X2
*I *164:Q O *C 9.425 18.995 *L 0 *D DFFRHQX4

*CAP
1 *33:1 0.000233721
2 *33:2 0.000233721
3 *33:3 4.02346e-05
4 *33:4 0.000147527
5 *33:5 1.37483e-05
6 *33:6 0.000296524
7 *33:7 1.37483e-05
8 *33:9 0.000189232
9 *33:12 0.000110833
10 *33:13 0.000110833
11 *33:14 8.39977e-05
12 *33:15 0.00072798
13 *33:17 0.000643982
14 *33:19 0.000152395
15 *33:20 1.38541e-05
16 *33:21 0.000138541
17 *33:22 4.19988e-05
18 *33:24 4.19988e-05
19 *33:25 1.38541e-05
20 *33:26 1.38541e-05

*RES
1 *33:26 *164:Q 1.4
2 *33:25 *33:26 0.124289
3 *33:24 *33:25 1.4
4 *33:22 *33:24 0.37285
5 *33:21 *219:A 1.4
6 *33:20 *33:22 1.4
7 *33:19 *33:21 1.24289
8 *33:19 *33:20 0.124289
9 *33:17 *33:19 1.4
10 *33:16 *193:A 1.4
11 *33:15 *33:17 5.71703
12 *33:15 *33:16 1.4
13 *33:14 *33:15 0.7457
14 *33:13 *33:14 1.4
15 *33:12 *33:13 0.99431
16 *33:9 *33:12 1.4
17 *33:8 *188:B 1.4
18 *33:7 *195:A 1.4
19 *33:6 *33:9 1.73997
20 *33:6 *33:8 1.4
21 *33:5 *33:7 0.124289
22 *33:4 *33:6 0.994269
23 *33:4 *33:5 1.4
24 *33:3 *33:4 0.372851
25 *33:2 *33:3 1.4
26 *33:1 *33:2 2.11291
27 *148:A *33:1 1.4
*END

*D_NET *34 0.00285799

*CONN
*I *223:A I *C 18.415 16.385 *L 0.00564 *D NOR2X2
*I *157:A I *C 25.955 18.995 *L 0.0156 *D CLKINVX6
*I *190:A I *C 28.565 18.995 *L 0.0111 *D NOR2X4
*I *235:A I *C 30.015 21.605 *L 0.00564 *D NOR2X2
*I *162:Q O *C 8.845 21.605 *L 0 *D DFFRHQX4

*CAP
1 *34:2 2.79992e-05
2 *34:3 2.79992e-05
3 *34:4 0.000138541
4 *34:5 0.000138541
5 *34:6 0.000391989
6 *34:7 0.000456989
7 *34:8 5.59985e-05
8 *34:9 0.000188056
9 *34:10 1.38541e-05
10 *34:11 0.000110833
11 *34:12 6.70577e-05
12 *34:13 1.37483e-05
13 *34:14 1.38541e-05
14 *34:15 0.000110833
15 *34:16 0.000109986
16 *34:17 1.37483e-05
17 *34:19 0.000433988
18 *34:20 0.000109986
19 *34:22 0.000433988

*RES
1 *34:24 *162:Q 1.4
2 *34:22 *34:24 1.4
3 *34:20 *235:A 1.4
4 *34:19 *34:22 3.85278
5 *34:17 *190:A 1.4
6 *34:16 *34:20 0.99431
7 *34:15 *34:19 1.4
8 *34:14 *157:A 1.4
9 *34:13 *34:17 0.124289
10 *34:12 *34:16 1.4
11 *34:11 *34:15 0.99431
12 *34:10 *34:14 0.124289
13 *34:9 *34:13 1.4
14 *34:9 *34:12 0.621418
15 *34:8 *34:11 1.4
16 *34:7 *34:10 1.4
17 *34:7 *34:9 1.11855
18 *34:6 *34:8 0.497133
19 *34:6 *34:7 2.9828
20 *34:5 *34:6 1.4
21 *34:4 *34:5 1.24289
22 *34:3 *34:4 1.4
23 *34:2 *34:3 0.248567
24 *34:1 *34:2 1.4
25 *223:A *34:1 1.4
*END

*D_NET *35 0.00375308

*CONN
*I *148:B I *C 34.365 21.605 *L 0.0109 *D NOR2X4
*I *195:B I *C 32.335 16.385 *L 0.0165 *D NOR2X6
*I *236:A I *C 31.755 11.165 *L 0.0111 *D NOR2X4
*I *214:A I *C 23.635 10.875 *L 0.0111 *D NAND2X4
*I *165:Q O *C 8.845 11.165 *L 0 *D DFFRHQX4
*I *192:A I *C 8.555 14.065 *L 0.00784 *D CLKINVX3

*CAP
1 *35:1 0.000247469
2 *35:2 0.000247469
3 *35:3 9.38808e-05
4 *35:4 9.38808e-05
5 *35:5 0.000247469
6 *35:7 0.000247469
7 *35:8 2.68231e-05
8 *35:9 0.000407345
9 *35:11 0.0010945
10 *35:13 1.38541e-05
11 *35:14 0.00072798
12 *35:15 1.38541e-05
13 *35:17 1.39996e-05
14 *35:20 0.000138541
15 *35:21 0.000138541

*RES
1 *35:21 *192:A 1.4
2 *35:20 *35:21 1.24289
3 *35:17 *35:20 1.4
4 *35:16 *165:Q 1.4
5 *35:15 *214:A 1.4
6 *35:14 *35:17 0.124283
7 *35:14 *35:16 1.4
8 *35:13 *35:15 0.124289
9 *35:11 *35:14 6.33845
10 *35:11 *35:13 1.4
11 *35:10 *236:A 1.4
12 *35:9 *35:11 3.47994
13 *35:9 *35:10 1.4
14 *35:8 *35:9 0.248567
15 *35:7 *35:8 1.4
16 *35:5 *35:7 2.2372
17 *35:5 *195:B 1.4
18 *35:4 *35:5 1.4
19 *35:3 *35:4 0.869985
20 *35:2 *35:3 1.4
21 *35:1 *35:2 2.2372
22 *148:B *35:1 1.4
*END

*D_NET *36 0.00296681

*CONN
*I *198:A I *C 35.815 13.775 *L 0.0111 *D NOR2X4
*I *143:A I *C 35.815 11.165 *L 0.0156 *D INVX6
*I *188:A I *C 29.145 16.385 *L 0.00564 *D NOR2X2
*I *166:Q O *C 18.705 8.555 *L 0 *D DFFRHQX4
*I *223:B I *C 18.125 16.675 *L 0.00542 *D NOR2X2

*CAP
1 *36:1 1.37483e-05
2 *36:2 0.000123735
3 *36:3 0.000241408
4 *36:4 0.000109986
5 *36:5 0.000241408
6 *36:7 0.000137483
7 *36:8 0.000137483
8 *36:9 6.70577e-05
9 *36:10 0.000564869
10 *36:12 0.000497811
11 *36:14 0.000387914
12 *36:15 1.38541e-05
13 *36:16 0.00037406
14 *36:17 2.79992e-05